(3R8G) [A] IZP409
XX    ILIB09072610573D

 14 14  0  0  1  0              1 V2000
   -1.9213    4.1635   14.5077 C   0  6  0  0  0
   -1.0171    3.4834   13.5082 C   0  0  0  0  0
   -1.6020    2.9750   12.5260 O   0  0  0  0  0
    0.2070    3.4190   13.7510 O   0  5  0  0  0
   -1.9057    5.6589   14.5679 C   0  0  0  0  0
   -2.1333    6.4606   13.4522 C   0  0  0  0  0
   -2.0467    7.8402   13.5920 C   0  0  0  0  0
   -1.8307    8.4487   14.8213 C   0  5  0  0  0
   -1.6831    7.6552   15.9408 C   0  0  0  0  0
   -1.7058    6.2729   15.8070 C   0  0  0  0  0
   -1.5568    5.6851   16.6641 H   0  0  0  0  0
   -1.5549    8.0973   16.8845 H   0  0  0  0  0
   -2.1507    8.4265   12.7271 H   0  0  0  0  0
   -2.3546    6.0201   12.5251 H   0  0  0  0  0
  1  2  1  0  0  0
  1  5  1  0  0  0
  2  3  2  0  0  0
  2  4  1  0  0  0
  5  6  1  0  0  0
  5 10  2  0  0  0
  6  7  2  0  0  0
  6 14  1  0  0  0
  7  8  1  0  0  0
  7 13  1  0  0  0
  8  9  2  0  0  0
  9 10  1  0  0  0
  9 12  1  0  0  0
 10 11  1  0  0  0
M  END
> <CanonicalPdbName>
3R8G-IZP_409_A

$$$$
